Version 4
SHEET 1 880 680
WIRE 544 0 496 0
WIRE 672 0 624 0
WIRE 368 64 320 64
WIRE 496 64 496 0
WIRE 496 64 448 64
WIRE 320 96 320 64
WIRE 496 128 496 64
WIRE 544 128 496 128
WIRE 672 144 672 0
WIRE 672 144 608 144
WIRE 768 144 672 144
WIRE 368 160 336 160
WIRE 480 160 448 160
WIRE 544 160 480 160
WIRE 480 192 480 160
FLAG 576 176 0
FLAG 128 176 0
FLAG 128 96 VCC
FLAG 576 112 VCC
FLAG 768 144 VOUT
FLAG 336 160 VIN
FLAG 128 320 0
FLAG 128 240 VIN
FLAG 480 272 0
FLAG 320 96 0
SYMBOL voltage 128 80 R0
WINDOW 123 0 0 Left 0
WINDOW 39 0 0 Left 0
SYMATTR InstName V1
SYMATTR Value 5
SYMBOL OpAmps\\UniversalOpamp2 576 144 R0
SYMATTR InstName U1
SYMBOL voltage 128 224 R0
WINDOW 123 0 0 Left 0
WINDOW 39 0 0 Left 0
SYMATTR InstName V2
SYMATTR Value SINE(2.5 2 10)
SYMBOL res 464 144 R90
WINDOW 0 0 56 VBottom 2
WINDOW 3 32 56 VTop 2
SYMATTR InstName R1
SYMATTR Value 50k
SYMBOL res 464 176 R0
SYMATTR InstName R2
SYMATTR Value 10k
SYMBOL res 464 48 R90
WINDOW 0 0 56 VBottom 2
WINDOW 3 32 56 VTop 2
SYMATTR InstName R3
SYMATTR Value 50k
SYMBOL res 640 -16 R90
WINDOW 0 0 56 VBottom 2
WINDOW 3 32 56 VTop 2
SYMATTR InstName R4
SYMATTR Value 10k
TEXT 94 344 Left 2 !.tran 1
